7
Properties=species:S:1:pos:R:3 name=SF6 seed=1 steps=140 rank=0 mode=eval pbc="F F F"
S        0.00000000       0.00000000       0.00000000
F        0.16365768      -1.08040750       1.17067075
F       -0.04701192       1.59993255      -0.00705490
F        0.89356166       1.03645456      -0.83352703
F       -0.91849965      -1.31066942      -0.08934799
F        0.85116875       0.79530364       1.09899998
F       -0.86167872       0.98555809      -0.93025988
5
Properties=species:S:1:pos:R:3 name=SF6 seed=1 steps=1540 rank=0 mode=eval pbc="F F F"
S        0.00000000       0.00000000       0.00000000
F       -0.01101556      -1.45078754      -0.69905359
F        0.62188733       1.37647152      -0.55460083
F       -0.71624851       0.12323341       1.43301880
F        0.66326559      -1.38720036      -0.45734930
6
Properties=species:S:1:pos:R:3 name=SF6 seed=1 steps=2940 rank=0 mode=eval pbc="F F F"
S        0.00000000       0.00000000       0.00000000
F       -1.33114827      -0.93383062      -0.24477091
F        0.28644869       1.21919906       1.07005560
F        1.22353244      -0.26972997      -1.06228900
F       -0.55104613       1.10052037      -1.10978568
F        0.55761439       0.28798604       1.64272606
4
Properties=species:S:1:pos:R:3 name=SF6 seed=1 steps=4340 rank=0 mode=eval pbc="F F F"
S        0.00000000       0.00000000       0.00000000
F       -0.35282141       1.27518892       1.00234258
F        0.96533066      -1.30620170       0.33223435
F       -0.63682878       0.06861205      -1.51945925
